
     RDKit          2D

 68 72  0  0  0  0  0  0  0  0999 V2000
  -10.1449  -16.5432    0.0000 N   0  0  0  0  0  0  0  0  0  0  0  0
  -10.3017  -15.0514    0.0000 C   0  0  0  0  0  0  0  0  0  0  0  0
  -11.6720  -14.4413    0.0000 C   0  0  0  0  0  0  0  0  0  0  0  0
  -12.8856  -15.3229    0.0000 O   0  0  0  0  0  0  0  0  0  0  0  0
   -9.0882  -14.1697    0.0000 C   0  0  0  0  0  0  0  0  0  0  0  0
   -7.7179  -14.7798    0.0000 S   0  0  0  0  0  0  0  0  0  0  0  0
   -6.5044  -13.8981    0.0000 C   0  0  0  0  0  0  0  0  0  0  0  0
   -5.0778  -14.3616    0.0000 C   0  0  0  0  0  0  0  0  0  0  0  0
   -4.6142  -15.7882    0.0000 O   0  0  0  0  0  0  0  0  0  0  0  0
   -4.1961  -13.1481    0.0000 N   0  0  0  0  0  0  0  0  0  0  0  0
   -2.6961  -13.1481    0.0000 O   0  0  0  0  0  0  0  0  0  0  0  0
   -1.9461  -14.4472    0.0000 C   0  0  0  0  0  0  0  0  0  0  0  0
   -2.6961  -15.7462    0.0000 O   0  0  0  0  0  0  0  0  0  0  0  0
   -0.4461  -14.4472    0.0000 C   0  0  0  0  0  0  0  0  0  0  0  0
    0.3039  -13.1481    0.0000 C   0  0  0  0  0  0  0  0  0  0  0  0
    1.8039  -13.1481    0.0000 C   0  0  0  0  0  0  0  0  0  0  0  0
    2.5539  -11.8491    0.0000 C   0  0  0  0  0  0  0  0  0  0  0  0
    4.0539  -11.8491    0.0000 C   0  0  0  0  0  0  0  0  0  0  0  0
    3.8971  -13.3409    0.0000 C   0  0  0  0  0  0  0  0  0  0  0  0
    3.8971  -10.3573    0.0000 C   0  0  0  0  0  0  0  0  0  0  0  0
    2.5981   -9.6073    0.0000 C   0  0  0  0  0  0  0  0  0  0  0  0
    2.5981   -8.1073    0.0000 C   0  0  0  0  0  0  0  0  0  0  0  0
    1.2990   -7.3573    0.0000 C   0  0  0  0  0  0  0  0  0  0  0  0
    1.2990   -5.8573    0.0000 C   0  0  0  0  0  0  0  0  0  0  0  0
    0.0000   -5.1073    0.0000 C   0  0  0  0  0  0  0  0  0  0  0  0
    0.0000   -3.6073    0.0000 C   0  0  0  0  0  0  0  0  0  0  0  0
    1.2135   -2.7256    0.0000 N   0  0  0  0  0  4  0  0  0  0  0  0
    2.6401   -3.1891    0.0000 C   0  0  0  0  0  0  0  0  0  0  0  0
    3.7548   -2.1855    0.0000 C   0  0  0  0  0  0  0  0  0  0  0  0
    5.1814   -2.6490    0.0000 C   0  0  0  0  0  0  0  0  0  0  0  0
    6.2961   -1.6453    0.0000 S   0  0  0  0  0  6  0  0  0  0  0  0
    7.2998   -2.7600    0.0000 O   0  0  0  0  0  0  0  0  0  0  0  0
    5.2924   -0.5306    0.0000 O   0  0  0  0  0  0  0  0  0  0  0  0
    7.4108   -0.6416    0.0000 O   0  0  0  0  0  1  0  0  0  0  0  0
    0.7500   -1.2990    0.0000 C   0  0  0  0  0  0  0  0  0  0  0  0
    1.5000    0.0000    0.0000 C   0  0  0  0  0  0  0  0  0  0  0  0
    0.7500    1.2990    0.0000 C   0  0  0  0  0  0  0  0  0  0  0  0
   -0.7500    1.2990    0.0000 C   0  0  0  0  0  0  0  0  0  0  0  0
   -1.5000    2.5981    0.0000 S   0  0  0  0  0  6  0  0  0  0  0  0
   -0.2010    3.3481    0.0000 O   0  0  0  0  0  0  0  0  0  0  0  0
   -2.7990    1.8481    0.0000 O   0  0  0  0  0  0  0  0  0  0  0  0
   -2.2500    3.8971    0.0000 O   0  0  0  0  0  1  0  0  0  0  0  0
   -1.5000    0.0000    0.0000 C   0  0  0  0  0  0  0  0  0  0  0  0
   -0.7500   -1.2990    0.0000 C   0  0  0  0  0  0  0  0  0  0  0  0
   -1.2135   -2.7256    0.0000 C   0  0  0  0  0  0  0  0  0  0  0  0
   -2.5838   -2.1155    0.0000 C   0  0  0  0  0  0  0  0  0  0  0  0
   -1.9635   -4.0247    0.0000 C   0  0  0  0  0  0  0  0  0  0  0  0
    5.2674   -9.7472    0.0000 N   0  0  0  0  0  0  0  0  0  0  0  0
    5.5793   -8.2800    0.0000 C   0  0  0  0  0  0  0  0  0  0  0  0
    7.0059   -7.8164    0.0000 C   0  0  0  0  0  0  0  0  0  0  0  0
    7.3178   -6.3492    0.0000 C   0  0  0  0  0  0  0  0  0  0  0  0
    8.7443   -5.8857    0.0000 S   0  0  0  0  0  6  0  0  0  0  0  0
    8.2808   -4.4591    0.0000 O   0  0  0  0  0  0  0  0  0  0  0  0
    9.2079   -7.3123    0.0000 O   0  0  0  0  0  0  0  0  0  0  0  0
   10.1709   -5.4222    0.0000 O   0  0  0  0  0  1  0  0  0  0  0  0
    6.2711  -10.8619    0.0000 C   0  0  0  0  0  0  0  0  0  0  0  0
    7.7711  -10.8619    0.0000 C   0  0  0  0  0  0  0  0  0  0  0  0
    8.5211  -12.1610    0.0000 C   0  0  0  0  0  0  0  0  0  0  0  0
    7.7711  -13.4600    0.0000 C   0  0  0  0  0  0  0  0  0  0  0  0
    8.5211  -14.7590    0.0000 S   0  0  0  0  0  6  0  0  0  0  0  0
    7.2221  -15.5090    0.0000 O   0  0  0  0  0  0  0  0  0  0  0  0
    9.8202  -14.0090    0.0000 O   0  0  0  0  0  0  0  0  0  0  0  0
    9.2711  -16.0581    0.0000 O   0  0  0  0  0  1  0  0  0  0  0  0
    6.2711  -13.4600    0.0000 C   0  0  0  0  0  0  0  0  0  0  0  0
    5.5211  -12.1610    0.0000 C   0  0  0  0  0  0  0  0  0  0  0  0
   -5.0778  -11.9346    0.0000 C   0  0  0  0  0  0  0  0  0  0  0  0
   -4.6142  -10.5080    0.0000 O   0  0  0  0  0  0  0  0  0  0  0  0
   -6.5044  -12.3981    0.0000 C   0  0  0  0  0  0  0  0  0  0  0  0
  1  2  1  0
  2  3  1  0
  3  4  2  0
  2  5  1  0
  5  6  1  0
  6  7  1  0
  7  8  1  0
  8  9  2  0
  8 10  1  0
 10 11  1  0
 11 12  1  0
 12 13  2  0
 12 14  1  0
 14 15  1  0
 15 16  1  0
 16 17  1  0
 17 18  1  0
 18 19  1  0
 18 20  1  0
 20 21  2  0
 21 22  1  0
 22 23  2  0
 23 24  1  0
 24 25  2  0
 25 26  1  0
 26 27  2  0
 27 28  1  0
 28 29  1  0
 29 30  1  0
 30 31  1  0
 31 32  2  0
 31 33  2  0
 31 34  1  0
 27 35  1  0
 35 36  2  0
 36 37  1  0
 37 38  2  0
 38 39  1  0
 39 40  2  0
 39 41  2  0
 39 42  1  0
 38 43  1  0
 43 44  2  0
 44 45  1  0
 45 46  1  0
 45 47  1  0
 20 48  1  0
 48 49  1  0
 49 50  1  0
 50 51  1  0
 51 52  1  0
 52 53  2  0
 52 54  2  0
 52 55  1  0
 48 56  1  0
 56 57  2  0
 57 58  1  0
 58 59  2  0
 59 60  1  0
 60 61  2  0
 60 62  2  0
 60 63  1  0
 59 64  1  0
 64 65  2  0
 10 66  1  0
 66 67  2  0
 66 68  1  0
 68  7  1  0
 65 18  1  0
 45 26  1  0
 65 56  1  0
 44 35  1  0
M  CHG  5  27   1  34  -1  42  -1  55  -1  63  -1
M  END
